/*--------------------------------*- C++ -*----------------------------------*\
| =========                 |                                                 |
| \\      /  F ield         | OpenFOAM: The Open Source CFD Toolbox           |
|  \\    /   O peration     | Version:  4.1                                   |
|   \\  /    A nd           | Web:      www.OpenFOAM.org                      |
|    \\/     M anipulation  |                                                 |
\*---------------------------------------------------------------------------*/
FoamFile
{
    version     2.0;
    format      binary;
    class       polyBoundaryMesh;
    location    "constant/polyMesh";
    object      boundary;
}
// * * * * * * * * * * * * * * * * * * * * * * * * * * * * * * * * * * * * * //

4
(
    inlet
    {
        type            cyclic;
        inGroups        1(cyclic);
        nFaces          28800;
        startFace       30945600;
        matchTolerance  0.0001;
        transform       unknown;
        neighbourPatch  outlet;
    }
    AMI1
    {
        type            patch;
        nFaces          0;
        startFace       30974400;
    }
    AMI2
    {
        type            patch;
        nFaces          0;
        startFace       30974400;
    }
    outlet
    {
        type            cyclic;
        inGroups        1(cyclic);
        nFaces          28800;
        startFace       30974400;
        matchTolerance  0.0001;
        transform       unknown;
        neighbourPatch  inlet;
    }
    innercylinder
    {
        type            wall;
        inGroups        1(wall);
        nFaces          129600;
        startFace       31003200;
    }
    outercylinder
    {
        type            wall;
        inGroups        1(wall);
        nFaces          129600;
        startFace       31132800;
    }
)

// ************************************************************************* //
